data/RTE/case13659pegase.m
function mpc = case13659pegase 
%CASE13659PEGASE  Power flow data for European system with step-up transformers.
%   Please see CASEFORMAT for details on the case file format.

%   This case accurately represents the size and complexity of the European
%   high voltage transmission network. The network contains 13,659 buses,
%   4,092 generators, and 20,467 branches and it operates at 750, 400, 380,
%   330, 220, 154, 150, 120, and 110 kV. Low voltage buses ranging from 
%   27,000 to 400 V are used to model step-up transformers which connect 
%   generators to the high-voltage network. Please note that the data are
%   fictitious and do not correspond to real world data. They can thus be
%   used to validate methods and tools but should not be used for operation
%   and planning of the European grid.
%
%   The data stems from the Pan European Grid Advanced Simulation and State
%   Estimation (PEGASE) project, part of the 7th Framework Program of the
%   European Union (http://www.fp7-pegase.com/). When publishing results
%   based on this data, please cite:
%
%     C. Josz, S. Fliscounakis, J. Maeght, and P. Panciatici,
%     "AC Power Flow Data in MATPOWER and QCQP Format: iTesla, RTE Snapshots, and PEGASE"
%     http://arxiv.org/abs/1603.01533
% 
%     S. Fliscounakis, P. Panciatici, F. Capitanescu, and L. Wehenkel,
%     "Contingency ranking with respect to overloads in very large power
%     systems taking into account uncertainty, preventive and corrective
%     actions", Power Systems, IEEE Trans. on, (28)4:4909-4917, 2013.
%     http://dx.doi.org/10.1109/TPWRS.2013.2251015
%
%   Remarks:
%
%   1. Line flow limits are the current flow limits found in PEGASE data.
%
%   2. PEGASE data contains asymmetric shunt conductance and susceptance in
%   the PI transmission line model of branches. Thus total line charging
%   susceptance of branches is set to 0 p.u. and the nodal representation
%   of shunt condutance and susceptance is used. As a result, power flow
%   equations are left unchanged compared with original PEGASE data.
%   However, line flow constraints in the optimal flow problem are
%   modified.
%
%   3. Identical linear costs are used for all generators to form a loss
%   minimizing OPF objective function.
%
%   4. Since some parts of the network are aggregated, some generators
%   (e.g. with negative PMIN) represent aggregations of multiple loads
%   and generators.
%
%   Cedric Josz, Jean Maeght, Stephane Fliscounakis, and Patrick Panciatici
%   firstname.lastname@rte-france.com
%   Reseau de Transport d'Electricite (French Transmission System Operator)
%   Departement Expertise Systeme, Immeuble "Le Colbert"
%   9 rue de la Porte de Buc, 78000 Versailles Cedex, France
%   March 4th, 2016

%   MATPOWER
%   Copyright (c) 2016 by Cedric Josz, Jean Maeght, Stephane Fliscounakis,
%   and Patrick Panciatici
%   Licensed under the Creative Commons Attribution 4.0 International license,
%   http://creativecommons.org/licenses/by/4.0/

%   MATPOWER

%% MATPOWER Case Format : Version 2
mpc.version = '2'; 
 
%%-----  Power Flow Data  -----%% 
%% system MVA base
mpc.baseMVA = 100; 
 
%% bus data
%	bus_i	type	Pd	Qd	Gs	Bs	area	Vm	Va	baseKV	zone	Vmax	Vmin
mpc.bus = [  
1	3	  0.00	  0.00	0.000000	0.000000	0	1.031695	0.000000	20	6	   1.1	   0.9	; 
2	1	 72.68	 45.00	0.000000	6.610000	0	1.002380	-9.035194	150	9	   1.1	   0.9	; 
3	1	378.40	 98.50	0.000000	16.610000	0	0.989665	-7.514519	220	6	   1.1	   0.9	; 
4	1	134.00	 19.10	0.000000	0.080000	0	1.005027	12.325176	154	1	   1.1	   0.9	; 
5	1	151.00	 48.80	0.000000	4.690000	0	0.989980	7.445755	220	5	   1.1	   0.9	; 
6	1	171.41	 23.40	0.000000	2.100000	0	1.004053	22.504675	220	5	   1.1	   0.9	; 
7	1	 45.95	 14.00	0.000000	13.340000	0	0.978685	-21.610492	220	6	   1.1	   0.9	; 
8	1	343.40	 53.10	0.705080	36.832433	0	1.023941	-13.304600	380	6	   1.1	   0.9	; 
9	1	 -0.00	 -0.00	0.000000	75.076713	0	0.995208	14.929241	380	5	   1.1	   0.9	; 
10	1	 31.03	 10.30	0.000000	0.650000	0	0.935403	-13.105656	110	21	   1.1	   0.9	; 
11	1	  0.00	 -0.00	0.000000	3.410000	0	1.038279	3.372868	154	1	   1.1	   0.9	; 
12	2	  0.00	  0.00	0.000000	0.000000	0	1.004054	96.865589	20	3	   1.1	   0.9	; 
13	1	 14.30	  2.00	0.000000	1.910000	0	1.046187	21.142072	154	1	   1.1	   0.9	; 
14	1	134.00	 24.70	0.000000	12.440000	0	1.028056	6.025887	220	5	   1.1	   0.9	; 
15	1	  0.00	  0.00	0.000000	0.000000	0	0.966985	-9.629605	150	9	   1.1	   0.9	; 
16	1	 -6.11	  2.00	0.000000	0.470000	0	1.048294	-4.845447	150	9	   1.1	   0.9	; 
17	1	-22.74	 -8.32	0.000000	6.500000	0	1.010520	-21.436889	220	6	   1.1	   0.9	; 
18	2	  0.00	  0.00	0.000000	0.000000	0	1.043087	11.638661	20	14	   1.1	   0.9	; 
19	1	 59.67	 26.70	0.000000	12.840000	0	1.029741	-21.109094	220	4	   1.1	   0.9	; 
20	1	 30.60	  4.30	0.000000	5.150000	0	0.995795	32.041235	154	1	   1.1	   0.9	; 
21	1	  0.00	 -0.00	0.234457	-0.195381	0	1.024139	-12.441425	380	6	   1.1	   0.9	; 
22	1	 67.67	 12.10	0.000000	2.180000	0	1.012996	31.441278	220	3	   1.1	   0.9	; 
23	1	  0.00	  0.00	0.295874	20.603438	0	1.023227	43.176177	380	3	   1.1	   0.9	; 
24	1	 25.33	  7.50	0.000000	2.390000	0	0.977442	-13.211902	110	12	   1.1	   0.9	; 
25	1	  1.40	  0.20	0.000000	4.930000	0	1.011870	32.552868	154	1	   1.1	   0.9	; 
26	1	161.20	 39.30	0.000000	30.710000	0	1.030926	8.563550	220	5	   1.1	   0.9	; 
27	1	  0.00	 -0.00	0.000000	0.850000	0	1.032196	11.548192	220	5	   1.1	   0.9	; 
28	1	 19.62	  7.10	0.000000	1.150000	0	0.994911	-5.413569	110	19	   1.1	   0.9	; 
29	2	  0.00	  0.00	0.000000	0.000000	0	1.033319	1.207015	20	18	   1.1	   0.9	; 
30	1	 31.94	  8.80	0.000000	0.730000	0	1.014217	-5.598531	110	22	   1.1	   0.9	; 
31	1	  0.00	 -0.00	0.235277	0.313936	0	1.029519	36.693892	220	3	   1.1	   0.9	; 
32	1	167.30	 54.80	0.000000	110.540000	0	1.008442	25.900391	380	5	   1.1	   0.9	; 
33	2	  0.00	  0.00	0.000000	0.000000	0	1.018631	-11.528817	20	4	   1.1	   0.9	; 
34	1	 -0.00	  0.00	0.000000	14.820000	0	1.050355	40.500598	380	13	   1.1	   0.9	; 
35	1	  0.00	  0.00	0.000000	0.000000	0	1.009463	-9.554155	150	9	   1.1	   0.9	; 
36	1	152.90	 49.40	0.000000	27.650000	0	0.978505	14.001978	380	5	   1.1	   0.9	; 
37	1	 -0.00	  0.00	0.000000	0.560000	0	1.027858	-7.880552	150	9	   1.1	   0.9	; 
38	1	 69.68	 43.20	0.000000	6.300000	0	0.914844	-11.630868	150	9	   1.1	   0.9	; 
39	2	  0.00	  0.00	0.000000	0.000000	0	1.073284	1.255700	20	9	   1.1	   0.9	; 
40	1	  0.00	 -0.00	0.000000	37.540000	0	1.002842	-15.045231	220	4	   1.1	   0.9	; 
41	1	  0.00	 -0.00	0.000000	0.250000	0	1.020848	-10.580356	220	4	   1.1	   0.9	; 
42	2	  0.00	  0.00	0.000000	0.000000	0	0.985213	28.561806	11	1	   1.1	   0.9	; 
43	1	 13.51	  4.90	0.000000	1.800000	0	1.021293	-2.929459	110	19	   1.1	   0.9	; 
44	1	 10.51	  3.50	0.000000	0.310000	0	0.990534	-11.414462	110	12	   1.1	   0.9	; 
45	2	  0.00	  0.00	0.000000	0.000000	0	1.012099	-18.860818	20	4	   1.1	   0.9	; 
46	1	 -0.00	  0.00	0.120000	15.340000	0	1.039103	0.763772	220	19	   1.1	   0.9	; 
47	1	  9.21	  2.60	0.000000	2.000000	0	0.975700	-6.904131	110	18	   1.1	   0.9	; 
48	1	 42.75	 12.80	0.000000	13.300000	0	1.049416	58.695823	220	8	   1.1	   0.9	; 
49	1	 -0.00	  0.00	0.019959	0.320041	0	0.998825	-10.375539	150	10	   1.1	   0.9	; 
50	1	 16.02	  4.54	0.000000	0.100000	0	0.983186	-8.374635	110	23	   1.1	   0.9	; 
51	2	  0.00	  0.00	0.000000	0.000000	0	1.011416	44.498643	1.440000e+01	1	   1.1	   0.9	; 
52	1	 27.90	  4.00	0.000000	4.230000	0	0.988125	16.109775	154	1	   1.1	   0.9	; 
53	1	 20.82	  7.90	0.000000	26.890000	0	1.016129	-21.455497	380	4	   1.1	   0.9	; 
54	2	  0.00	  0.00	0.000000	0.000000	0	1.021005	21.987746	20	14	   1.1	   0.9	; 
55	1	  0.00	  0.00	0.000000	7.270000	0	1.036171	8.177694	220	5	   1.1	   0.9	; 
56	1	 10.11	  3.70	0.000000	0.810000	0	1.042060	-2.933811	110	19	   1.1	   0.9	; 
57	1	 10.01	  2.70	0.000000	1.140000	0	0.954805	-6.844584	110	18	   1.1	   0.9	; 
58	1	  6.31	 -0.00	0.000000	0.670000	0	0.981092	-5.140628	110	18	   1.1	   0.9	; 
59	1	  2.90	  0.90	0.000000	0.600000	0	1.038133	-3.370570	110	15	   1.1	   0.9	; 
60	1	 -0.00	  0.00	0.318913	17.760815	0	1.006337	-6.766633	220	6	   1.1	   0.9	; 
61	1	 -0.00	 -0.00	0.549745	0.432068	0	1.047066	36.050570	380	2	   1.1	   0.9	; 
62	2	  0.00	  0.00	0.000000	0.000000	0	1.058268	15.875889	20	5	   1.1	   0.9	; 
63	2	  0.00	  0.00	0.000000	0.000000	0	1.058268	15.875889	20	5	   1.1	   0.9	; 
64	1	151.80	 48.30	0.000000	5.530000	0	1.009945	-20.345542	220	4	   1.1	   0.9	; 
65	1	127.60	 31.80	0.000000	20.510000	0	0.991930	25.086276	150	8	   1.1	   0.9	; 
66	2	  0.00	  0.00	0.000000	0.000000	0	1.034768	8.492541	20	22	   1.1	   0.9	; 
67	1	  0.00	  0.00	0.000000	0.840000	0	0.975466	-6.422787	110	21	   1.1	   0.9	; 
68	2	  0.00	  0.00	0.000000	0.000000	0	1.035023	-10.739655	20	4	   1.1	   0.9	; 
69	2	  0.00	  0.00	0.000000	0.000000	0	1.035023	-10.739655	20	4	   1.1	   0.9	; 
70	1	110.50	-26.80	0.000000	16.370000	0	1.007417	-5.990692	220	6	   1.1	   0.9	; 
71	1	 -0.00	 -0.00	0.000000	0.000000	0	1.020600	13.215214	20	5	   1.1	   0.9	; 
72	1	 -0.00	 -0.00	0.000000	0.000000	0	1.020600	13.215214	20	5	   1.1	   0.9	; 
73	1	  0.00	  0.00	0.000000	1.230000	0	0.993601	33.018065	220	3	   1.1	   0.9	; 
74	1	  0.00	 -0.00	0.000000	0.000000	0	1.024981	18.183447	20	5	   1.1	   0.9	; 
75	1	  0.00	 -0.00	0.000000	0.000000	0	1.024981	18.183447	20	5	   1.1	   0.9	; 
76	1	  0.00	 -0.00	0.000000	0.000000	0	1.024981	18.183447	20	5	   1.1	   0.9	; 
77	2	  0.00	  0.00	0.000000	0.000000	0	1.038344	11.554722	20	5	   1.1	   0.9	; 
78	2	  0.00	  0.00	0.000000	0.000000	0	1.027383	17.740146	20	5	   1.1	   0.9	; 
79	2	  0.00	  0.00	0.000000	0.000000	0	1.016716	24.455607	20	5	   1.1	   0.9	; 
80	1	140.00	 79.70	0.000000	6.500000	0	1.009229	11.978416	220	3	   1.1	   0.9	; 
81	1	 21.60	  3.00	0.000000	3.540000	0	0.990476	15.061407	154	1	   1.1	   0.9	; 
82	1	  0.00	 -0.00	0.000000	2.310000	0	1.005323	7.725281	380	5	   1.1	   0.9	; 
83	1	119.20	 20.70	0.000000	3.310000	0	1.017560	5.059048	220	5	   1.1	   0.9	; 
84	1	 26.43	  9.90	0.000000	9.570000	0	0.989474	-14.141367	110	22	   1.1	   0.9	; 
85	1	  0.24	 -1.66	0.000000	0.650000	0	1.024209	3.944647	110	18	   1.1	   0.9	; 
86	2	  0.00	  0.00	0.000000	0.000000	0	1.023881	-4.354948	20	6	   1.1	   0.9	; 
87	1	 -0.00	  0.00	0.000000	0.000000	0	1.014629	-9.004047	20	6	   1.1	   0.9	; 
88	1	 -0.00	  0.00	0.000000	0.000000	0	1.014629	-9.004047	20	6	   1.1	   0.9	; 
89	1	  0.00	  0.00	0.000000	58.570000	0	1.067567	73.239254	380	3	   1.1	   0.9	; 
90	1	 -0.00	  0.00	0.000000	1.340000	0	0.965658	-5.045088	110	18	   1.1	   0.9	; 
91	1	187.90	110.20	0.000000	21.250000	0	1.016938	32.836298	380	3	   1.1	   0.9	; 
92	1	 14.92	  5.50	0.000000	1.310000	0	1.055990	-0.961794	110	15	   1.1	   0.9	; 
93	1	-18.52	  6.10	0.000000	0.790000	0	0.929361	-10.259554	150	9	   1.1	   0.9	; 
94	2	  0.00	  0.00	0.000000	0.000000	0	1.022611	22.294732	11	1	   1.1	   0.9	; 
95	1	  4.61	  1.70	0.000000	2.320000	0	0.989635	-2.082376	110	19	   1.1	   0.9	; 
96	2	  0.00	  0.00	0.000000	0.000000	0	1.043225	-4.501166	20	4	   1.1	   0.9	; 
97	2	  0.00	  0.00	0.000000	0.000000	0	1.043225	-4.501166	20	4	   1.1	   0.9	; 
98	2	  0.00	  0.00	0.000000	0.000000	0	1.043225	-4.501166	20	4	   1.1	   0.9	; 
99	2	  0.00	  0.00	0.000000	0.000000	0	1.031885	-12.651409	20	4	   1.1	   0.9	; 
100	2	  0.00	  0.00	0.000000	0.000000	0	1.031885	-12.651409	20	4	   1.1	   0.9	; 
101	2	  0.00	  0.00	0.000000	0.000000	0	1.043225	-4.501166	20	4	   1.1	   0.9	; 
102	2	  0.00	  0.00	0.000000	0.000000	0	1.043225	-4.501166	20	4	   1.1	   0.9	; 
103	1	 62.87	 20.50	0.000000	1.150000	0	0.989544	23.826254	150	8	   1.1	   0.9	; 
104	2	  0.00	  0.00	0.000000	0.000000	0	1.052257	44.731305	20	3	   1.1	   0.9	; 
105	1	 13.50	 14.80	0.000000	132.435168	0	1.141691	0.929631	380	9	   1.2	   0.8	; 
106	1	126.30	 42.40	0.000000	55.240000	0	1.033923	30.212130	150	8	   1.1	   0.9	; 
107	2	  0.00	  0.00	0.000000	0.000000	0	1.028153	78.700831	20	3	   1.1	   0.9	; 
108	1	  6.91	 -4.60	0.000000	5.750000	0	1.020240	-13.484638	220	4	   1.1	   0.9	; 
109	1	 15.72	  5.20	0.000000	0.110000	0	0.997550	-13.611914	110	12	   1.1	   0.9	; 
110	2	  0.00	  0.00	0.000000	0.000000	0	1.051233	87.799236	20	3	   1.1	   0.9	; 
111	1	 16.12	  4.30	0.000000	0.490000	0	1.040632	-1.700832	110	23	   1.1	   0.9	; 
112	1	 38.74	  6.10	0.000000	1.170000	0	1.014811	-25.695432	220	4	   1.1	   0.9	; 
113	1	 22.13	 10.70	0.000000	14.210000	0	1.049481	58.705166	220	8	   1.1	   0.9	; 
114	2	  0.00	  0.00	0.000000	0.000000	0	1.030832	-9.752509	20	4	   1.1	   0.9	; 
115	2	  0.00	  0.00	0.000000	0.000000	0	1.019000	-2.975058	20	10	   1.1	   0.9	; 
116	1	  0.00	 -0.00	0.000000	0.730000	0	1.015690	-23.117496	220	4	   1.1	   0.9	; 
117	1	  0.00	  0.00	0.000000	0.830000	0	0.982560	1.655497	110	18	   1.1	   0.9	; 
118	1	138.80	136.70	0.000000	8.760000	0	1.005586	39.420522	380	3	   1.1	   0.9	; 
119	1	137.30	 66.40	0.174767	14.174070	0	1.047225	-3.097806	220	23	   1.1	   0.9	; 
120	1	 67.76	 19.18	0.000000	1.470000	0	0.992206	88.681174	150	1	   1.1	   0.9	; 
121	2	  0.00	  0.00	0.000000	0.000000	0	1.045359	10.101302	20	14	   1.1	   0.9	; 
122	1	  0.00	 -0.00	0.000000	6.620000	0	0.989992	37.681252	220	3	   1.1	   0.9	; 
123	1	 -0.00	 -0.00	0.000000	7.220000	0	1.015598	45.599895	380	1	   1.1	   0.9	; 
124	1	  1.00	  0.30	0.000000	0.190000	0	1.046082	-0.185974	110	19	   1.1	   0.9	; 
125	1	 20.90	  3.00	0.000000	5.740000	0	0.979547	43.485266	154	1	   1.1	   0.9	; 
126	1	  0.00	  0.00	0.000000	0.120000	0	1.054143	-2.947678	150	9	   1.1	   0.9	; 
127	1	 21.52	  5.10	0.000000	0.500000	0	1.015831	7.375377	110	18	   1.1	   0.9	; 
128	1	 71.98	 28.80	0.000000	11.000000	0	0.992515	-4.018187	220	6	   1.1	   0.9	; 
129	1	  0.00	  0.00	0.205132	4.470744	0	0.992133	32.281513	380	2	   1.1	   0.9	; 
130	1	363.25	115.39	0.000000	3.950000	0	1.032584	1.551181	220	5	   1.1	   0.9	; 
131	1	192.90	 73.30	0.000000	20.750000	0	1.015930	31.223648	380	3	   1.1	   0.9	; 
132	2	  0.00	  0.00	0.000000	0.000000	0	0.996117	32.042491	11	1	   1.1	   0.9	; 
133	2	  0.00	  0.00	0.000000	0.000000	0	1.042317	14.274354	20	14	   1.1	   0.9	; 
134	2	  0.00	  0.00	0.000000	0.000000	0	1.044129	-4.738961	20	4	   1.1	   0.9	; 
135	2	  0.00	  0.00	0.000000	0.000000	0	1.030832	-9.752509	20	4	   1.1	   0.9	; 
136	2	  0.00	  0.00	0.000000	0.000000	0	1.049674	87.363329	20	3	   1.1	   0.9	; 
137	1	 17.52	  6.30	0.000000	0.260000	0	1.033716	0.043737	110	19	   1.1	   0.9	; 
138	1	 33.14	 12.00	0.000000	0.650000	0	0.998323	-1.616561	110	19	   1.1	   0.9	; 
139	1	 40.44	 25.00	0.000000	9.820000	0	0.982498	-8.529449	150	9	   1.1	   0.9	; 
140	1	193.17	 53.37	0.000000	4.580000	0	1.007093	11.733465	220	5	   1.1	   0.9	; 
141	1	 90.70	 25.50	0.000000	3.110000	0	1.086033	24.723865	220	3	   1.2	   0.8	; 
142	1	176.30	-58.90	0.000000	24.770000	0	1.010147	0.042670	380	6	   1.1	   0.9	; 
143	1	 35.94	 22.30	0.000000	0.000000	0	1.041468	-6.860670	150	9	   1.1	   0.9	; 
144	2	  0.00	  0.00	0.000000	0.000000	0	1.034631	4.683321	20	14	   1.1	   0.9	; 
145	2	  0.00	  0.00	0.000000	0.000000	0	1.040587	38.218788	20	5	   1.1	   0.9	; 
146	2	  0.00	  0.00	0.000000	0.000000	0	1.044313	37.077846	20	5	   1.1	   0.9	; 
147	2	  0.00	  0.00	0.000000	0.000000	0	1.044313	37.077846	20	5	   1.1	   0.9	; 
148	1	143.90	123.20	0.000000	72.640000	0	1.017260	31.781520	380	3	   1.1	   0.9	; 
149	1	 -0.00	 -0.00	0.000000	3.770000	0	0.998552	-23.031405	220	6	   1.1	   0.9	; 
150	1	 -0.00	  8.40	0.000000	15.720000	0	1.035657	-6.436529	150	9	   1.1	   0.9	; 
151	2	  0.00	  0.00	0.000000	0.000000	0	1.023215	19.248221	1.380000e+01	1	   1.1	   0.9	; 
152	1	 51.36	 -8.80	0.000000	2.150000	0	0.957631	-29.999659	220	6	   1.1	   0.9	; 
153	2	  0.00	  0.00	0.000000	0.000000	0	1.027348	16.396901	20	14	   1.1	   0.9	; 
154	2	  0.00	  0.00	0.000000	0.000000	0	1.052520	75.282812	20	3	   1.1	   0.9	; 
155	1	 -0.00	 -0.00	0.000000	82.550000	0	1.018112	-4.652605	380	6	   1.1	   0.9	; 
156	2	  0.00	  0.00	0.000000	0.000000	0	1.034597	19.022639	20	6	   1.1	   0.9	; 
157	1	322.70	 11.90	0.000000	10.280000	0	0.997201	-11.924333	380	6	   1.1	   0.9	; 
158	1	303.60	 79.80	0.019533	1.690467	0	1.030319	13.564017	220	5	   1.1	   0.9	; 
159	1	  3.80	  1.30	0.000000	0.400000	0	1.003488	6.243881	110	18	   1.1	   0.9	; 
160	1	137.00	 19.50	0.000000	4.900000	0	1.005167	12.788654	154	1	   1.1	   0.9	; 
161	2	  0.00	  0.00	0.000000	0.000000	0	1.034597	19.022639	20	6	   1.1	   0.9	; 
162	2	  0.00	  0.00	0.000000	0.000000	0	1.034597	19.022639	20	6	   1.1	   0.9	; 
163	1	  0.00	  0.00	0.000000	0.000000	0	0.998875	-9.905754	150	9	   1.1	   0.9	; 
164	1	 61.07	 36.00	0.000000	3.090000	0	1.048414	5.258031	220	11	   1.1	   0.9	; 
165	2	  0.00	  0.00	0.000000	0.000000	0	1.030832	-9.752509	20	4	   1.1	   0.9	; 
166	1	 -0.00	  0.00	0.000000	3.240000	0	1.069303	18.198045	220	3	   1.1	   0.9	; 
167	1	  0.00	  0.00	0.000000	6.520303	0	1.025278	15.598401	380	5	   1.1	   0.9	; 
168	1	 55.70	  7.90	0.000000	4.210000	0	0.982808	36.169129	154	1	   1.1	   0.9	; 
169	1	  0.00	  0.00	0.000000	4.210000	0	1.043196	10.569078	220	5	   1.1	   0.9	; 
170	1	  1.80	  0.70	0.000000	0.300000	0	0.963316	-5.114898	110	19	   1.1	   0.9	; 
171	1	  0.00	 -0.00	0.000000	0.710000	0	1.004078	-8.960914	150	9	   1.1	   0.9	; 
172	1	  2.50	  0.00	0.000000	0.960000	0	0.954773	-7.079414	110	18	   1.1	   0.9	; 
173	1	  0.00	  0.00	0.000000	0.090000	0	1.071275	1.379824	150	9	   1.1	   0.9	; 
174	1	 38.94	 11.00	0.000000	0.640000	0	0.982878	-10.227511	110	1	   1.1	   0.9	; 
175	1	 45.15	 14.10	0.000000	0.190000	0	1.055172	-2.479395	110	15	   1.1	   0.9	; 
176	1	  0.00	 -0.00	0.000000	5.750000	0	0.995048	32.610865	220	3	   1.1	   0.9	; 
177	1	  0.00	  0.00	0.019004	4.360996	0	1.045733	7.663940	220	11	   1.1	   0.9	; 
178	1	  0.00	 -0.00	0.566322	-0.241138	0	1.066307	38.390318	220	5	   1.1	   0.9	; 
179	2	  0.00	  0.00	0.000000	0.000000	0	1.023144	-9.538309	20	4	   1.1	   0.9	; 
180	1	 17.22	  5.70	0.000000	1.220000	0	0.938533	-9.006406	110	21	   1.1	   0.9	; 
181	1	 -0.00	 -0.00	0.000000	0.000000	0	1.020557	9.624602	20	14	   1.1	   0.9	; 
182	2	  0.00	  0.00	0.000000	0.000000	0	1.054937	4.624127	20	20	   1.1	   0.9	; 
183	1	  0.00	  0.00	0.000000	4.300000	0	1.005985	0.980119	220	6	   1.1	   0.9	; 
184	1	 23.73	 12.70	0.000000	0.520000	0	1.018182	14.939378	220	5	   1.1	   0.9	; 
185	1	121.90	  7.40	0.000000	1.340000	0	1.013750	15.934135	220	3	   1.1	   0.9	; 
186	1	  0.00	 -0.00	0.135375	47.750675	0	1.043206	-19.578893	380	10	   1.1	   0.9	; 
187	1	 47.35	 16.40	0.000000	4.080000	0	1.025300	-13.383559	110	22	   1.1	   0.9	; 
188	1	 -0.00	  0.00	0.000000	0.000000	0	1.021419	-22.292440	20	4	   1.1	   0.9	; 
189	1	 -0.00	 -0.00	0.000000	21.390000	0	1.043162	-16.102529	380	1	   1.1	   0.9	; 
190	1	 38.14	 12.50	0.000000	6.280000	0	1.000545	26.619584	150	8	   1.1	   0.9	; 
191	1	 54.20	  7.80	0.000000	94.900000	0	0.973826	31.884786	400	1	   1.1	   0.9	; 
192	1	130.60	 84.90	0.000000	4.220000	0	1.007461	6.385629	220	7	   1.1	   0.9	; 
193	1	  7.91	  2.60	0.000000	0.740000	0	0.982641	-11.113148	110	12	   1.1	   0.9	; 
194	1	 42.10	 74.61	0.000000	37.580000	0	0.983941	88.980027	150	1	   1.1	   0.9	; 
195	1	-75.38	  7.80	0.000000	29.900000	0	1.058902	-14.107366	380	10	   1.1	   0.9	; 
196	2	  0.00	  0.00	0.000000	0.000000	0	1.021915	-9.376379	20	6	   1.1	   0.9	; 
197	2	  0.00	  0.00	0.000000	0.000000	0	1.005341	-1.941399	20	4	   1.1	   0.9	; 
198	1	 41.05	 14.30	0.000000	11.530000	0	1.002832	0.458665	220	6	   1.1	   0.9	; 
199	1	 -0.00	 -0.00	0.000000	4.140000	0	1.012917	48.512020	220	8	   1.1	   0.9	; 
200	1	100.90	 49.30	0.020067	4.329933	0	0.982261	24.304858	220	13	   1.1	   0.9	; 
...
 
%% generator data
%	bus	Pg	Qg	Qmax	Qmin	Vg	mBase	status	Pmax	Pmin	Pc1	Pc2	Qc1min	Qc1max	Qc2min	Qc2max	ramp_agc	ramp_10	ramp_30	ramp_q	apf
mpc.gen = [ 
1	 42.33	 15.72	 40.00	-10.00	1.031695	100	1	100.00	 28.22	0	0	0	0	0	0	0	0	0	0	0	 ; 
12	238.58	 -4.09	210.00	-50.00	1.004054	100	1	500.00	100.00	0	0	0	0	0	0	0	0	0	0	0	 ; 
18	 38.02	 11.21	 30.00	-10.00	1.043087	100	1	100.00	 25.35	0	0	0	0	0	0	0	0	0	0	0	 ; 
29	 34.78	 14.67	 30.00	-10.00	1.033319	100	1	100.00	 23.19	0	0	0	0	0	0	0	0	0	0	0	 ; 
33	 25.35	  8.50	 40.00	-10.00	1.018631	100	1	100.00	 16.90	0	0	0	0	0	0	0	0	0	0	0	 ; 
39	214.60	 55.92	210.00	-50.00	1.073284	100	1	500.00	100.00	0	0	0	0	0	0	0	0	0	0	0	 ; 
42	 16.10	 -4.12	 20.00	-20.00	0.985213	100	1	100.00	 10.73	0	0	0	0	0	0	0	0	0	0	0	 ; 
45	192.55	  1.87	160.00	-40.00	1.012099	100	1	400.00	100.00	0	0	0	0	0	0	0	0	0	0	0	 ; 
51	161.00	  0.83	 90.00	-90.00	1.011416	100	1	400.00	100.00	0	0	0	0	0	0	0	0	0	0	0	 ; 
54	 37.08	  5.51	 30.00	-10.00	1.021005	100	1	100.00	 24.72	0	0	0	0	0	0	0	0	0	0	0	 ; 
62	617.70	178.65	520.00	-120.00	1.058268	100	1	1300.00	400.00	0	0	0	0	0	0	0	0	0	0	0	 ; 
63	617.70	178.65	520.00	-120.00	1.058268	100	1	1300.00	400.00	0	0	0	0	0	0	0	0	0	0	0	 ; 
66	179.12	 14.03	160.00	-40.00	1.034768	100	1	400.00	100.00	0	0	0	0	0	0	0	0	0	0	0	 ; 
68	 53.72	 11.91	 40.00	-10.00	1.035023	100	1	200.00	 35.81	0	0	0	0	0	0	0	0	0	0	0	 ; 
69	 53.72	 11.91	 40.00	-10.00	1.035023	100	1	200.00	 35.81	0	0	0	0	0	0	0	0	0	0	0	 ; 
77	 24.65	  6.97	 30.00	-10.00	1.038344	100	1	100.00	 16.43	0	0	0	0	0	0	0	0	0	0	0	 ; 
78	 54.48	 10.37	 30.00	-10.00	1.027383	100	1	200.00	 36.32	0	0	0	0	0	0	0	0	0	0	0	 ; 
79	 18.13	  3.85	 30.00	-10.00	1.016716	100	1	100.00	 12.09	0	0	0	0	0	0	0	0	0	0	0	 ; 
86	152.70	 32.92	 80.00	-20.00	1.023881	100	1	400.00	100.00	0	0	0	0	0	0	0	0	0	0	0	 ; 
94	 17.64	  3.05	 20.00	-10.00	1.022611	100	1	100.00	 11.76	0	0	0	0	0	0	0	0	0	0	0	 ; 
96	 49.42	  5.32	 40.00	-10.00	1.043225	100	1	100.00	 32.95	0	0	0	0	0	0	0	0	0	0	0	 ; 
97	 49.42	  5.32	 40.00	-10.00	1.043225	100	1	100.00	 32.95	0	0	0	0	0	0	0	0	0	0	0	 ; 
98	 49.42	  5.32	 40.00	-10.00	1.043225	100	1	100.00	 32.95	0	0	0	0	0	0	0	0	0	0	0	 ; 
99	 23.85	  6.18	 40.00	-10.00	1.031885	100	1	100.00	 15.90	0	0	0	0	0	0	0	0	0	0	0	 ; 
100	 23.85	  6.18	 40.00	-10.00	1.031885	100	1	100.00	 15.90	0	0	0	0	0	0	0	0	0	0	0	 ; 
101	 49.42	  5.32	 40.00	-10.00	1.043225	100	1	100.00	 32.95	0	0	0	0	0	0	0	0	0	0	0	 ; 
102	 49.42	  5.32	 40.00	-10.00	1.043225	100	1	100.00	 32.95	0	0	0	0	0	0	0	0	0	0	0	 ; 
104	 87.95	 47.73	 60.00	-20.00	1.052257	100	1	200.00	 58.63	0	0	0	0	0	0	0	0	0	0	0	 ; 
107	 68.26	  9.75	 60.00	-20.00	1.028153	100	1	200.00	 45.51	0	0	0	0	0	0	0	0	0	0	0	 ; 
110	 91.47	 10.42	 60.00	-20.00	1.051233	100	1	200.00	 60.98	0	0	0	0	0	0	0	0	0	0	0	 ; 
114	 42.35	  6.03	 40.00	-10.00	1.030832	100	1	100.00	 28.23	0	0	0	0	0	0	0	0	0	0	0	 ; 
115	 22.35	  5.33	 30.00	-10.00	1.019000	100	1	100.00	 14.90	0	0	0	0	0	0	0	0	0	0	0	 ; 
121	 36.03	 16.08	 30.00	-10.00	1.045359	100	1	100.00	 24.02	0	0	0	0	0	0	0	0	0	0	0	 ; 
132	  6.52	  0.05	 10.00	-10.00	0.996117	100	1	100.00	  4.35	0	0	0	0	0	0	0	0	0	0	0	 ; 
133	 36.77	 13.93	 30.00	-10.00	1.042317	100	1	100.00	 24.51	0	0	0	0	0	0	0	0	0	0	0	 ; 
134	 45.54	  5.69	 40.00	-10.00	1.044129	100	1	100.00	 30.36	0	0	0	0	0	0	0	0	0	0	0	 ; 
135	 42.35	  6.03	 40.00	-10.00	1.030832	100	1	100.00	 28.23	0	0	0	0	0	0	0	0	0	0	0	 ; 
136	 50.83	  3.96	 60.00	-20.00	1.049674	100	1	200.00	 33.89	0	0	0	0	0	0	0	0	0	0	0	 ; 
144	 17.80	 10.21	 30.00	-10.00	1.034631	100	1	100.00	 11.87	0	0	0	0	0	0	0	0	0	0	0	 ; 
145	612.01	227.35	520.00	-120.00	1.040587	100	1	1300.00	400.00	0	0	0	0	0	0	0	0	0	0	0	 ; 
146	612.04	259.97	520.00	-120.00	1.044313	100	1	1300.00	400.00	0	0	0	0	0	0	0	0	0	0	0	 ; 
147	612.04	259.97	520.00	-120.00	1.044313	100	1	1300.00	400.00	0	0	0	0	0	0	0	0	0	0	0	 ; 
151	204.00	 30.47	150.00	-60.00	1.023215	100	1	500.00	100.00	0	0	0	0	0	0	0	0	0	0	0	 ; 
153	 36.13	  4.17	 30.00	-10.00	1.027348	100	1	100.00	 24.09	0	0	0	0	0	0	0	0	0	0	0	 ; 
154	766.83	  2.68	520.00	-120.00	1.052520	100	1	1600.00	500.00	0	0	0	0	0	0	0	0	0	0	0	 ; 
156	 49.34	  9.15	 40.00	-10.00	1.034597	100	1	100.00	 32.89	0	0	0	0	0	0	0	0	0	0	0	 ; 
161	 49.34	  9.15	 40.00	-10.00	1.034597	100	1	100.00	 32.89	0	0	0	0	0	0	0	0	0	0	0	 ; 
162	 49.34	  9.15	 40.00	-10.00	1.034597	100	1	100.00	 32.89	0	0	0	0	0	0	0	0	0	0	0	 ; 
165	 42.35	  6.03	 40.00	-10.00	1.030832	100	1	100.00	 28.23	0	0	0	0	0	0	0	0	0	0	0	 ; 
179	 95.02	  8.09	 60.00	-20.00	1.023144	100	1	200.00	 63.35	0	0	0	0	0	0	0	0	0	0	0	 ; 
182	 34.96	 12.97	 30.00	-10.00	1.054937	100	1	100.00	 23.31	0	0	0	0	0	0	0	0	0	0	0	 ; 
196	 81.07	 20.71	 60.00	-20.00	1.021915	100	1	200.00	 54.05	0	0	0	0	0	0	0	0	0	0	0	 ; 
197	245.73	  1.48	160.00	-40.00	1.005341	100	1	500.00	100.00	0	0	0	0	0	0	0	0	0	0	0	 ; 
207	 27.95	  4.02	 30.00	-10.00	1.016461	100	1	100.00	 18.63	0	0	0	0	0	0	0	0	0	0	0	 ; 
220	 97.72	 38.87	 60.00	-20.00	1.055654	100	1	200.00	 65.15	0	0	0	0	0	0	0	0	0	0	0	 ; 
221	 97.72	 38.87	 60.00	-20.00	1.055654	100	1	200.00	 65.15	0	0	0	0	0	0	0	0	0	0	0	 ; 
222	 97.66	 41.74	 60.00	-20.00	1.051105	100	1	200.00	 65.11	0	0	0	0	0	0	0	0	0	0	0	 ; 
223	 97.72	 38.87	 60.00	-20.00	1.055654	100	1	200.00	 65.15	0	0	0	0	0	0	0	0	0	0	0	 ; 
224	 97.66	 41.74	 60.00	-20.00	1.051105	100	1	200.00	 65.11	0	0	0	0	0	0	0	0	0	0	0	 ; 
225	 97.66	 41.74	 60.00	-20.00	1.051105	100	1	200.00	 65.11	0	0	0	0	0	0	0	0	0	0	0	 ; 
229	 21.03	  9.77	 30.00	-10.00	1.034441	100	1	100.00	 14.02	0	0	0	0	0	0	0	0	0	0	0	 ; 
241	601.87	179.70	520.00	-120.00	1.037622	100	1	1300.00	400.00	0	0	0	0	0	0	0	0	0	0	0	 ; 
243	 32.43	 17.87	 30.00	-10.00	1.053647	100	1	100.00	 21.62	0	0	0	0	0	0	0	0	0	0	0	 ; 
248	 26.38	  8.70	 30.00	-10.00	1.026279	100	1	100.00	 17.59	0	0	0	0	0	0	0	0	0	0	0	 ; 
250	192.55	  1.87	160.00	-40.00	1.012099	100	1	400.00	100.00	0	0	0	0	0	0	0	0	0	0	0	 ; 
258	  8.20	 -2.56	 10.00	-10.00	0.955439	100	1	100.00	  5.47	0	0	0	0	0	0	0	0	0	0	0	 ; 
259	 38.51	  8.85	 30.00	-10.00	1.034250	100	1	100.00	 25.67	0	0	0	0	0	0	0	0	0	0	0	 ; 
266	 28.48	  6.95	 30.00	-10.00	1.005915	100	1	100.00	 18.99	0	0	0	0	0	0	0	0	0	0	0	 ; 
270	 18.40	 -1.01	 20.00	-20.00	1.003342	100	1	100.00	 12.27	0	0	0	0	0	0	0	0	0	0	0	 ; 
271	626.63	195.60	520.00	-120.00	1.053159	100	1	1300.00	400.00	0	0	0	0	0	0	0	0	0	0	0	 ; 
273	626.63	190.10	520.00	-120.00	1.051456	100	1	1300.00	400.00	0	0	0	0	0	0	0	0	0	0	0	 ; 
274	626.64	188.59	520.00	-120.00	1.051088	100	1	1300.00	400.00	0	0	0	0	0	0	0	0	0	0	0	 ; 
275	626.64	188.59	520.00	-120.00	1.051088	100	1	1300.00	400.00	0	0	0	0	0	0	0	0	0	0	0	 ; 
276	626.64	187.14	520.00	-120.00	1.050379	100	1	1300.00	400.00	0	0	0	0	0	0	0	0	0	0	0	 ; 
278	627.00	 28.92	320.00	-190.00	0.960771	100	1	1300.00	400.00	0	0	0	0	0	0	0	0	0	0	0	 ; 
283	  8.00	  0.73	 10.00	-10.00	1.000621	100	1	100.00	  5.33	0	0	0	0	0	0	0	0	0	0	0	 ; 
289	 36.90	 11.76	 30.00	-10.00	1.040289	100	1	100.00	 24.60	0	0	0	0	0	0	0	0	0	0	0	 ; 
294	 92.80	  3.25	 50.00	-50.00	0.999187	100	1	200.00	 61.87	0	0	0	0	0	0	0	0	0	0	0	 ; 
296	 21.00	  0.70	 10.00	-10.00	0.989117	100	1	100.00	 14.00	0	0	0	0	0	0	0	0	0	0	0	 ; 
299	158.90	 35.36	100.00	-30.00	0.993468	100	1	400.00	100.00	0	0	0	0	0	0	0	0	0	0	0	 ; 
304	 39.98	  8.70	 30.00	-10.00	1.037997	100	1	100.00	 26.65	0	0	0	0	0	0	0	0	0	0	0	 ; 
305	 27.73	  2.00	 30.00	-10.00	1.030407	100	1	100.00	 18.49	0	0	0	0	0	0	0	0	0	0	0	 ; 
306	 27.73	  2.00	 30.00	-10.00	1.030407	100	1	100.00	 18.49	0	0	0	0	0	0	0	0	0	0	0	 ; 
307	 17.66	  6.95	 30.00	-10.00	1.049321	100	1	100.00	 11.77	0	0	0	0	0	0	0	0	0	0	0	 ; 
308	 17.66	  6.95	 30.00	-10.00	1.049321	100	1	100.00	 11.77	0	0	0	0	0	0	0	0	0	0	0	 ; 
309	 32.08	  3.64	 30.00	-10.00	1.056550	100	1	100.00	 21.39	0	0	0	0	0	0	0	0	0	0	0	 ; 
310	 32.08	  3.64	 30.00	-10.00	1.056550	100	1	100.00	 21.39	0	0	0	0	0	0	0	0	0	0	0	 ; 
311	 32.08	  3.64	 30.00	-10.00	1.056550	100	1	100.00	 21.39	0	0	0	0	0	0	0	0	0	0	0	 ; 
312	 32.08	  3.64	 30.00	-10.00	1.056550	100	1	100.00	 21.39	0	0	0	0	0	0	0	0	0	0	0	 ; 
315	  2.06	  0.62	 10.00	-10.00	1.021202	100	1	100.00	  1.37	0	0	0	0	0	0	0	0	0	0	0	 ; 
323	419.13	110.83	520.00	-120.00	1.016993	100	1	900.00	200.00	0	0	0	0	0	0	0	0	0	0	0	 ; 
324	  5.00	  1.91	 10.00	-10.00	1.024179	100	1	100.00	  3.33	0	0	0	0	0	0	0	0	0	0	0	 ; 
325	  4.80	 -0.12	 10.00	-10.00	0.996355	100	1	100.00	  3.20	0	0	0	0	0	0	0	0	0	0	0	 ; 
328	 54.54	 27.56	 40.00	-10.00	1.023168	100	1	200.00	 36.36	0	0	0	0	0	0	0	0	0	0	0	 ; 
331	 27.62	  3.89	 30.00	-20.00	1.006233	100	1	100.00	 18.41	0	0	0	0	0	0	0	0	0	0	0	 ; 
332	  2.00	 -0.00	 10.00	-10.00	0.996766	100	1	100.00	  1.33	0	0	0	0	0	0	0	0	0	0	0	 ; 
336	 16.08	  0.01	 10.00	-10.00	1.010862	100	1	100.00	 10.72	0	0	0	0	0	0	0	0	0	0	0	 ; 
338	 16.08	 -0.17	 10.00	-10.00	1.000380	100	1	100.00	 10.72	0	0	0	0	0	0	0	0	0	0	0	 ; 
345	333.10	 57.13	210.00	-50.00	1.030395	100	1	700.00	200.00	0	0	0	0	0	0	0	0	0	0	0	 ; 
346	333.10	 57.13	210.00	-50.00	1.030395	100	1	700.00	200.00	0	0	0	0	0	0	0	0	0	0	0	 ; 
351	167.59	 39.08	210.00	-50.00	1.024484	100	1	400.00	100.00	0	0	0	0	0	0	0	0	0	0	0	 ; 
354	 36.42	  7.96	 30.00	-10.00	1.029166	100	1	100.00	 24.28	0	0	0	0	0	0	0	0	0	0	0	 ; 
358	165.24	104.62	210.00	-50.00	1.050725	100	1	400.00	100.00	0	0	0	0	0	0	0	0	0	0	0	 ; 
360	 84.12	 16.88	 60.00	-20.00	1.028641	100	1	200.00	 56.08	0	0	0	0	0	0	0	0	0	0	0	 ; 
361	 84.12	 16.88	 60.00	-20.00	1.028641	100	1	200.00	 56.08	0	0	0	0	0	0	0	0	0	0	0	 ; 
362	 84.12	 16.88	 60.00	-20.00	1.028641	100	1	200.00	 56.08	0	0	0	0	0	0	0	0	0	0	0	 ; 
363	 84.12	 16.88	 60.00	-20.00	1.028641	100	1	200.00	 56.08	0	0	0	0	0	0	0	0	0	0	0	 ; 
364	  5.25	  0.21	 10.00	-10.00	1.005640	100	1	100.00	  3.50	0	0	0	0	0	0	0	0	0	0	0	 ; 
365	 95.20	 36.17	110.00	-30.00	0.997585	100	1	200.00	 63.47	0	0	0	0	0	0	0	0	0	0	0	 ; 
368	 84.12	 16.88	 60.00	-20.00	1.028641	100	1	200.00	 56.08	0	0	0	0	0	0	0	0	0	0	0	 ; 
369	 84.12	 16.88	 60.00	-20.00	1.028641	100	1	200.00	 56.08	0	0	0	0	0	0	0	0	0	0	0	 ; 
382	102.03	 10.64	 60.00	-20.00	0.990596	100	1	300.00	 68.02	0	0	0	0	0	0	0	0	0	0	0	 ; 
383	102.24	 30.32	 60.00	-20.00	1.012482	100	1	300.00	 68.16	0	0	0	0	0	0	0	0	0	0	0	 ; 
392	  1.03	  0.09	 10.00	-10.00	1.030636	100	1	100.00	  0.69	0	0	0	0	0	0	0	0	0	0	0	 ; 
394	 37.90	 13.47	 30.00	-10.00	1.032600	100	1	100.00	 25.27	0	0	0	0	0	0	0	0	0	0	0	 ; 
395	 37.23	  4.01	 30.00	-10.00	1.028283	100	1	100.00	 24.82	0	0	0	0	0	0	0	0	0	0	0	 ; 
396	 85.28	 21.31	 60.00	-20.00	1.029542	100	1	200.00	 56.85	0	0	0	0	0	0	0	0	0	0	0	 ; 
400	 94.50	  8.92	 50.00	-40.00	0.979015	100	1	200.00	 63.00	0	0	0	0	0	0	0	0	0	0	0	 ; 
405	 33.64	  6.90	 30.00	-10.00	1.007730	100	1	100.00	 22.43	0	0	0	0	0	0	0	0	0	0	0	 ; 
406	 33.64	  6.90	 30.00	-10.00	1.007730	100	1	100.00	 22.43	0	0	0	0	0	0	0	0	0	0	0	 ; 
408	 34.92	  9.74	 30.00	-10.00	1.043492	100	1	100.00	 23.28	0	0	0	0	0	0	0	0	0	0	0	 ; 
423	  0.99	 -0.05	 10.00	-10.00	1.015919	100	1	100.00	  0.66	0	0	0	0	0	0	0	0	0	0	0	 ; 
432	  4.50	  0.47	 10.00	-10.00	1.016602	100	1	100.00	  3.00	0	0	0	0	0	0	0	0	0	0	0	 ; 
433	 30.04	  7.71	 30.00	-10.00	1.011489	100	1	100.00	 20.03	0	0	0	0	0	0	0	0	0	0	0	 ; 
438	 18.13	  3.85	 30.00	-10.00	1.016716	100	1	100.00	 12.09	0	0	0	0	0	0	0	0	0	0	0	 ; 
442	 31.35	 11.33	 30.00	-10.00	1.043357	100	1	100.00	 20.90	0	0	0	0	0	0	0	0	0	0	0	 ; 
448	 25.22	  6.35	 20.00	-10.00	1.038795	100	1	100.00	 16.81	0	0	0	0	0	0	0	0	0	0	0	 ; 
454	  8.35	 -1.53	 10.00	-10.00	0.973833	100	1	100.00	  5.57	0	0	0	0	0	0	0	0	0	0	0	 ; 
458	 31.28	 -0.92	 30.00	-10.00	1.009892	100	1	100.00	 20.85	0	0	0	0	0	0	0	0	0	0	0	 ; 
463	-19.98	270.34	100000.00	-100000.00	1.126642	100	1	100.00	-26.64	0	0	0	0	0	0	0	0	0	0	0	 ; 
470	 74.80	 42.23	 60.00	-20.00	1.046905	100	1	200.00	 49.87	0	0	0	0	0	0	0	0	0	0	0	 ; 
476	214.05	 76.67	210.00	-50.00	1.029484	100	1	500.00	100.00	0	0	0	0	0	0	0	0	0	0	0	 ; 
477	 38.02	 11.21	 30.00	-10.00	1.043087	100	1	100.00	 25.35	0	0	0	0	0	0	0	0	0	0	0	 ; 
480	 89.20	 18.25	 60.00	-20.00	1.033425	100	1	200.00	 59.47	0	0	0	0	0	0	0	0	0	0	0	 ; 
481	 89.20	 18.25	 60.00	-20.00	1.033425	100	1	200.00	 59.47	0	0	0	0	0	0	0	0	0	0	0	 ; 
482	 89.20	 18.25	 60.00	-20.00	1.033425	100	1	200.00	 59.47	0	0	0	0	0	0	0	0	0	0	0	 ; 
483	 89.20	 18.25	 60.00	-20.00	1.033425	100	1	200.00	 59.47	0	0	0	0	0	0	0	0	0	0	0	 ; 
485	325.03	139.06	210.00	-50.00	1.059619	100	1	700.00	200.00	0	0	0	0	0	0	0	0	0	0	0	 ; 
492	273.28	112.89	210.00	-50.00	1.041985	100	1	600.00	100.00	0	0	0	0	0	0	0	0	0	0	0	 ; 
496	 64.28	 29.97	 60.00	-20.00	1.008760	100	1	200.00	 42.85	0	0	0	0	0	0	0	0	0	0	0	 ; 
508	857.64	276.43	520.00	-120.00	1.044776	100	1	1800.00	500.00	0	0	0	0	0	0	0	0	0	0	0	 ; 
509	857.69	282.91	520.00	-120.00	1.044388	100	1	1800.00	500.00	0	0	0	0	0	0	0	0	0	0	0	 ; 
510	857.66	271.49	520.00	-120.00	1.044096	100	1	1800.00	500.00	0	0	0	0	0	0	0	0	0	0	0	 ; 
514	857.64	273.87	520.00	-120.00	1.044511	100	1	1800.00	500.00	0	0	0	0	0	0	0	0	0	0	0	 ; 
516	 32.57	  7.29	 30.00	-10.00	1.041748	100	1	100.00	 21.71	0	0	0	0	0	0	0	0	0	0	0	 ; 
528	 23.66	  2.76	 30.00	-10.00	1.020703	100	1	100.00	 15.77	0	0	0	0	0	0	0	0	0	0	0	 ; 
531	 38.79	  7.11	 30.00	-10.00	1.035838	100	1	100.00	 25.86	0	0	0	0	0	0	0	0	0	0	0	 ; 
532	258.95	 65.97	210.00	-50.00	1.036699	100	1	600.00	100.00	0	0	0	0	0	0	0	0	0	0	0	 ; 
533	164.92	  6.68	160.00	-40.00	1.016377	100	1	400.00	100.00	0	0	0	0	0	0	0	0	0	0	0	 ; 
539	152.00	 33.40	 90.00	-40.00	0.993492	100	1	400.00	100.00	0	0	0	0	0	0	0	0	0	0	0	 ; 
552	 30.60	 -1.46	 20.00	-20.00	0.998340	100	1	100.00	 20.40	0	0	0	0	0	0	0	0	0	0	0	 ; 
559	 51.50	 -7.54	 30.00	-30.00	0.954584	100	1	200.00	 34.33	0	0	0	0	0	0	0	0	0	0	0	 ; 
564	 21.77	  6.35	 30.00	-10.00	1.024499	100	1	100.00	 14.51	0	0	0	0	0	0	0	0	0	0	0	 ; 
572	  7.00	  0.90	 10.00	-10.00	1.004314	100	1	100.00	  4.67	0	0	0	0	0	0	0	0	0	0	0	 ; 
575	 18.09	  1.85	 30.00	-10.00	1.016739	100	1	100.00	 12.06	0	0	0	0	0	0	0	0	0	0	0	 ; 
576	 18.09	  1.85	 30.00	-10.00	1.016739	100	1	100.00	 12.06	0	0	0	0	0	0	0	0	0	0	0	 ; 
577	 18.09	  1.85	 30.00	-10.00	1.016739	100	1	100.00	 12.06	0	0	0	0	0	0	0	0	0	0	0	 ; 
581	 18.09	  1.85	 30.00	-10.00	1.016739	100	1	100.00	 12.06	0	0	0	0	0	0	0	0	0	0	0	 ; 
585	 72.61	 29.56	 60.00	-20.00	1.041629	100	1	200.00	 48.41	0	0	0	0	0	0	0	0	0	0	0	 ; 
589	 13.38	  0.68	 10.00	-10.00	1.007550	100	1	100.00	  8.92	0	0	0	0	0	0	0	0	0	0	0	 ; 
610	 31.95	 15.26	 30.00	-10.00	1.019723	100	1	100.00	 21.30	0	0	0	0	0	0	0	0	0	0	0	 ; 
614	 34.81	 16.31	 40.00	-10.00	1.031902	100	1	100.00	 23.21	0	0	0	0	0	0	0	0	0	0	0	 ; 
615	 34.81	 16.31	 40.00	-10.00	1.031902	100	1	100.00	 23.21	0	0	0	0	0	0	0	0	0	0	0	 ; 
619	 42.50	  5.74	 40.00	-10.00	1.031502	100	1	100.00	 28.33	0	0	0	0	0	0	0	0	0	0	0	 ; 
621	  5.80	 -0.78	 10.00	-10.00	1.003942	100	1	100.00	  3.87	0	0	0	0	0	0	0	0	0	0	0	 ; 
623	 36.03	 16.08	 30.00	-10.00	1.045359	100	1	100.00	 24.02	0	0	0	0	0	0	0	0	0	0	0	 ; 
626	 43.29	 23.54	 60.00	-20.00	1.035771	100	1	100.00	 28.86	0	0	0	0	0	0	0	0	0	0	0	 ; 
635	  0.13	 -0.10	 10.00	-10.00	1.023511	100	1	100.00	  0.09	0	0	0	0	0	0	0	0	0	0	0	 ; 
637	 25.22	  5.17	 30.00	-10.00	1.046160	100	1	100.00	 16.81	0	0	0	0	0	0	0	0	0	0	0	 ; 
646	333.10	 57.13	210.00	-50.00	1.030395	100	1	700.00	200.00	0	0	0	0	0	0	0	0	0	0	0	 ; 
648	322.05	 10.40	210.00	-50.00	1.007781	100	1	700.00	200.00	0	0	0	0	0	0	0	0	0	0	0	 ; 
649	333.10	 57.13	210.00	-50.00	1.030395	100	1	700.00	200.00	0	0	0	0	0	0	0	0	0	0	0	 ; 
651	188.27	 -7.75	210.00	-50.00	1.028351	100	1	400.00	100.00	0	0	0	0	0	0	0	0	0	0	0	 ; 
652	188.27	 -7.75	210.00	-50.00	1.028351	100	1	400.00	100.00	0	0	0	0	0	0	0	0	0	0	0	 ; 
654	 92.40	  2.72	 60.00	-20.00	1.014507	100	1	200.00	 61.60	0	0	0	0	0	0	0	0	0	0	0	 ; 
660	 33.21	  5.47	 30.00	-10.00	1.022689	100	1	100.00	 22.14	0	0	0	0	0	0	0	0	0	0	0	 ; 
666	 31.30	 -0.77	 30.00	-10.00	1.018739	100	1	100.00	 20.87	0	0	0	0	0	0	0	0	0	0	0	 ; 
671	 25.20	 -0.32	 20.00	-10.00	0.999061	100	1	100.00	 16.80	0	0	0	0	0	0	0	0	0	0	0	 ; 
676	274.65	 30.64	160.00	-40.00	1.018066	100	1	600.00	100.00	0	0	0	0	0	0	0	0	0	0	0	 ; 
681	 84.68	  7.94	 60.00	-20.00	1.006570	100	1	200.00	 56.45	0	0	0	0	0	0	0	0	0	0	0	 ; 
684	 68.89	 19.23	 60.00	-20.00	1.035618	100	1	200.00	 45.93	0	0	0	0	0	0	0	0	0	0	0	 ; 
693	209.96	 80.03	160.00	-40.00	1.038999	100	1	500.00	100.00	0	0	0	0	0	0	0	0	0	0	0	 ; 
695	  8.40	 -0.84	 10.00	-10.00	1.010516	100	1	100.00	  5.60	0	0	0	0	0	0	0	0	0	0	0	 ; 
698	 26.72	  4.41	 20.00	-10.00	1.018527	100	1	100.00	 17.81	0	0	0	0	0	0	0	0	0	0	0	 ; 
709	626.68	236.63	520.00	-120.00	1.051727	100	1	1300.00	400.00	0	0	0	0	0	0	0	0	0	0	0	 ; 
715	 23.90	  3.61	 30.00	-10.00	1.007844	100	1	100.00	 15.93	0	0	0	0	0	0	0	0	0	0	0	 ; 
717	 23.12	  5.58	 10.00	  0.00	1.027572	100	1	100.00	 15.41	0	0	0	0	0	0	0	0	0	0	0	 ; 
721	 74.35	 10.28	 60.00	-20.00	0.992442	100	1	200.00	 49.57	0	0	0	0	0	0	0	0	0	0	0	 ; 
724	 35.50	 10.89	 30.00	-10.00	1.045213	100	1	100.00	 23.67	0	0	0	0	0	0	0	0	0	0	0	 ; 
730	 98.46	 12.34	 60.00	-20.00	1.014580	100	1	200.00	 65.64	0	0	0	0	0	0	0	0	0	0	0	 ; 
731	 98.46	 12.34	 60.00	-20.00	1.014580	100	1	200.00	 65.64	0	0	0	0	0	0	0	0	0	0	0	 ; 
732	 98.46	 12.34	 60.00	-20.00	1.014580	100	1	200.00	 65.64	0	0	0	0	0	0	0	0	0	0	0	 ; 
734	 98.46	 12.34	 60.00	-20.00	1.014580	100	1	200.00	 65.64	0	0	0	0	0	0	0	0	0	0	0	 ; 
746	 16.00	  0.19	 10.00	-10.00	0.994194	100	1	100.00	 10.67	0	0	0	0	0	0	0	0	0	0	0	 ; 
749	 22.58	  9.34	 30.00	-10.00	1.009791	100	1	100.00	 15.05	0	0	0	0	0	0	0	0	0	0	0	 ; 
750	 22.58	  9.34	 30.00	-10.00	1.009791	100	1	100.00	 15.05	0	0	0	0	0	0	0	0	0	0	0	 ; 
751	 22.58	  9.34	 30.00	-10.00	1.009791	100	1	100.00	 15.05	0	0	0	0	0	0	0	0	0	0	0	 ; 
753	 20.64	  7.21	 30.00	-10.00	1.018866	100	1	100.00	 13.76	0	0	0	0	0	0	0	0	0	0	0	 ; 
754	 64.65	 13.16	 60.00	-20.00	1.009683	100	1	200.00	 43.10	0	0	0	0	0	0	0	0	0	0	0	 ; 
765	 78.37	 30.34	 60.00	-20.00	1.032985	100	1	200.00	 52.25	0	0	0	0	0	0	0	0	0	0	0	 ; 
...
 
%% branch data
%	fbus	tbus	r	x	b	rateA	rateB	rateC	ratio	angle	status	angmin	angmax
mpc.branch = [ 
7519	4482	0.000600	0.006160	0	0	0	0	0.000000	0.000000	1	-360	360	 ; 
7519	11823	0.000500	0.007400	0	0	0	0	0.000000	0.000000	1	-360	360	 ; 
3073	4516	0.001070	0.006260	0	0	0	0	0.000000	0.000000	1	-360	360	 ; 
3073	4706	0.000841	0.005500	0	0	0	0	0.000000	0.000000	1	-360	360	 ; 
5157	1032	0.001430	0.015630	0	0	0	0	0.000000	0.000000	1	-360	360	 ; 
5157	6653	0.001460	0.016920	0	0	0	0	0.000000	0.000000	1	-360	360	 ; 
628	7896	0.000070	0.000570	0	0	0	0	0.000000	0.000000	1	-360	360	 ; 
628	6592	0.000060	0.000560	0	0	0	0	0.000000	0.000000	1	-360	360	 ; 
11792	10888	0.003349	0.016560	0	0	0	0	0.000000	0.000000	1	-360	360	 ; 
11792	4609	0.003409	0.016211	0	0	0	0	0.000000	0.000000	1	-360	360	 ; 
6573	10888	0.003479	0.015860	0	0	0	0	0.000000	0.000000	1	-360	360	 ; 
6573	4609	0.003099	0.017969	0	0	0	0	0.000000	0.000000	1	-360	360	 ; 
782	13300	0.001270	0.018420	0	0	0	0	0.000000	0.000000	1	-360	360	 ; 
782	1186	0.001260	0.018470	0	0	0	0	0.000000	0.000000	1	-360	360	 ; 
11715	924	0.001300	0.018080	0	0	0	0	0.000000	0.000000	1	-360	360	 ; 
11715	12182	0.001310	0.017650	0	0	0	0	0.000000	0.000000	1	-360	360	 ; 
10257	2582	0.000650	0.013110	0	0	0	0	0.000000	0.000000	1	-360	360	 ; 
10257	9363	0.000670	0.009740	0	0	0	0	0.000000	0.000000	1	-360	360	 ; 
7595	11501	0.002360	0.014180	0	0	0	0	0.000000	0.000000	1	-360	360	 ; 
7595	11390	0.002169	0.015909	0	0	0	0	0.000000	0.000000	1	-360	360	 ; 
6873	1806	0.000270	0.002540	0	0	0	0	0.000000	0.000000	1	-360	360	 ; 
6873	11151	0.000270	0.002590	0	0	0	0	0.000000	0.000000	1	-360	360	 ; 
11949	1806	0.000330	0.003020	0	0	0	0	0.000000	0.000000	1	-360	360	 ; 
11949	1269	0.000290	0.003120	0	0	0	0	0.000000	0.000000	1	-360	360	 ; 
2623	3359	0.000289	0.001370	0	0	0	0	0.000000	0.000000	1	-360	360	 ; 
2623	11159	0.000219	0.002630	0	0	0	0	0.000000	0.000000	1	-360	360	 ; 
3020	3359	0.000289	0.001341	0	0	0	0	0.000000	0.000000	1	-360	360	 ; 
3020	12995	0.000229	0.002570	0	0	0	0	0.000000	0.000000	1	-360	360	 ; 
9670	3359	0.000841	0.006890	0	0	0	0	0.000000	0.000000	1	-360	360	 ; 
9670	2360	0.000979	0.005860	0	0	0	0	0.000000	0.000000	1	-360	360	 ; 
8390	3359	0.000140	0.001200	0	0	0	0	0.000000	0.000000	1	-360	360	 ; 
8390	11515	0.000211	0.001539	0	0	0	0	0.000000	0.000000	1	-360	360	 ; 
12630	3359	0.000401	0.004901	0	0	0	0	0.000000	0.000000	1	-360	360	 ; 
12630	11515	0.000219	0.001510	0	0	0	0	0.000000	0.000000	1	-360	360	 ; 
3340	3359	0.000729	0.004539	0	0	0	0	0.000000	0.000000	1	-360	360	 ; 
3340	3953	0.000620	0.004820	0	0	0	0	0.000000	0.000000	1	-360	360	 ; 
7444	8848	0.000520	0.004070	0	0	0	0	0.000000	0.000000	1	-360	360	 ; 
7444	5026	0.000340	0.005020	0	0	0	0	0.000000	0.000000	1	-360	360	 ; 
11055	8848	0.000650	0.006980	0	0	0	0	0.000000	0.000000	1	-360	360	 ; 
11055	13067	0.000590	0.008060	0	0	0	0	0.000000	0.000000	1	-360	360	 ; 
9857	13125	0.000630	0.004640	0	0	0	0	0.000000	0.000000	1	-360	360	 ; 
9857	12598	0.000599	0.005099	0	0	0	0	0.000000	0.000000	1	-360	360	 ; 
7256	7011	0.000640	0.003070	0	0	0	0	0.000000	0.000000	1	-360	360	 ; 
7256	11232	0.000659	0.003000	0	0	0	0	0.000000	0.000000	1	-360	360	 ; 
12732	9895	0.000530	0.005280	0	0	0	0	0.000000	0.000000	1	-360	360	 ; 
12732	4416	0.000560	0.005300	0	0	0	0	0.000000	0.000000	1	-360	360	 ; 
4494	7011	0.001800	0.007919	0	0	0	0	0.000000	0.000000	1	-360	360	 ; 
4494	10481	0.001651	0.008620	0	0	0	0	0.000000	0.000000	1	-360	360	 ; 
7913	9895	0.000450	0.005450	0	0	0	0	0.000000	0.000000	1	-360	360	 ; 
7913	1269	0.000520	0.004760	0	0	0	0	0.000000	0.000000	1	-360	360	 ; 
3258	10043	0.012860	0.037421	0	0	0	0	0.000000	0.000000	1	-360	360	 ; 
3258	8238	0.032397	0.123000	0	0	0	0	0.000000	0.000000	1	-360	360	 ; 
697	10043	0.032851	0.069727	0	0	0	0	0.000000	0.000000	1	-360	360	 ; 
697	11841	0.059942	0.112802	0	0	0	0	0.000000	0.000000	1	-360	360	 ; 
11629	10942	0.000110	0.001090	0	0	0	0	0.000000	0.000000	1	-360	360	 ; 
11629	13171	0.000110	0.001070	0	0	0	0	0.000000	0.000000	1	-360	360	 ; 
9089	11260	0.000461	0.003950	0	0	0	0	0.000000	0.000000	1	-360	360	 ; 
9089	7609	0.000599	0.003789	0	0	0	0	0.000000	0.000000	1	-360	360	 ; 
13119	3581	0.001730	0.015420	0	0	0	0	0.000000	0.000000	1	-360	360	 ; 
13119	6381	0.001660	0.020830	0	0	0	0	0.000000	0.000000	1	-360	360	 ; 
5075	13106	0.006314	0.018488	0	0	0	0	0.000000	0.000000	1	-360	360	 ; 
5075	9503	0.015727	0.037669	0	0	0	0	0.000000	0.000000	1	-360	360	 ; 
11048	10312	0.003740	0.020950	0	0	0	0	0.000000	0.000000	1	-360	360	 ; 
11048	3185	0.005110	0.019461	0	0	0	0	0.000000	0.000000	1	-360	360	 ; 
1538	4109	0.011281	0.050771	0	0	0	0	0.000000	0.000000	1	-360	360	 ; 
1538	3721	0.011500	0.049719	0	0	0	0	0.000000	0.000000	1	-360	360	 ; 
5803	4109	0.011719	0.048659	0	0	0	0	0.000000	0.000000	1	-360	360	 ; 
5803	3721	0.011930	0.047599	0	0	0	0	0.000000	0.000000	1	-360	360	 ; 
189	4268	0.000640	0.007150	0	0	0	0	0.000000	0.000000	1	-360	360	 ; 
189	11488	0.000890	0.007120	0	0	0	0	0.000000	0.000000	1	-360	360	 ; 
7384	1009	0.000480	0.005550	0	0	0	0	0.000000	0.000000	1	-360	360	 ; 
7384	11547	0.000470	0.005660	0	0	0	0	0.000000	0.000000	1	-360	360	 ; 
11070	1009	0.000460	0.005240	0	0	0	0	0.000000	0.000000	1	-360	360	 ; 
11070	11547	0.000520	0.005140	0	0	0	0	0.000000	0.000000	1	-360	360	 ; 
2061	6603	0.004380	0.010686	0	0	0	0	0.000000	0.000000	1	-360	360	 ; 
2061	9733	0.031347	0.062653	0	0	0	0	0.000000	0.000000	1	-360	360	 ; 
9502	7241	0.000290	0.002980	0	0	0	0	0.000000	0.000000	1	-360	360	 ; 
9502	8865	0.000300	0.002910	0	0	0	0	0.000000	0.000000	1	-360	360	 ; 
12336	13321	0.001550	0.015290	0	0	0	0	0.000000	0.000000	1	-360	360	 ; 
12336	494	0.001480	0.015200	0	0	0	0	0.000000	0.000000	1	-360	360	 ; 
13540	11971	0.000169	0.000960	0	0	0	0	0.000000	0.000000	1	-360	360	 ; 
13540	330	0.000182	0.000942	0	0	0	0	0.000000	0.000000	1	-360	360	 ; 
8250	622	0.000160	0.001840	0	0	0	0	0.000000	0.000000	1	-360	360	 ; 
8250	8646	0.000220	0.002870	0	0	0	0	0.000000	0.000000	1	-360	360	 ; 
5656	9506	0.000150	0.001870	0	0	0	0	0.000000	0.000000	1	-360	360	 ; 
5656	7003	0.000220	0.002660	0	0	0	0	0.000000	0.000000	1	-360	360	 ; 
8767	13151	0.001380	0.017400	0	0	0	0	0.000000	0.000000	1	-360	360	 ; 
8767	256	0.002720	0.028800	0	0	0	0	0.000000	0.000000	1	-360	360	 ; 
11952	7565	0.000650	0.010240	0	0	0	0	0.000000	0.000000	1	-360	360	 ; 
11952	8750	0.000730	0.010040	0	0	0	0	0.000000	0.000000	1	-360	360	 ; 
13220	7565	0.000750	0.009830	0	0	0	0	0.000000	0.000000	1	-360	360	 ; 
13220	8750	0.000760	0.009630	0	0	0	0	0.000000	0.000000	1	-360	360	 ; 
10465	10831	0.000420	0.026660	0	0	0	0	0.000000	0.000000	1	-360	360	 ; 
8079	10358	0.000290	0.002600	0	0	0	0	0.000000	0.000000	1	-360	360	 ; 
8079	8404	0.000220	0.003030	0	0	0	0	0.000000	0.000000	1	-360	360	 ; 
7197	5524	0.001000	0.006159	0	0	0	0	0.000000	0.000000	1	-360	360	 ; 
7197	11931	0.001130	0.006570	0	0	0	0	0.000000	0.000000	1	-360	360	 ; 
1721	12153	0.001300	0.012770	0	0	0	0	0.000000	0.000000	1	-360	360	 ; 
1721	10744	0.001630	0.018080	0	0	0	0	0.000000	0.000000	1	-360	360	 ; 
8400	850	0.000470	0.004060	0	0	0	0	0.000000	0.000000	1	-360	360	 ; 
8400	8575	0.002350	0.023430	0	0	0	0	0.000000	0.000000	1	-360	360	 ; 
9020	2201	0.000360	0.004450	0	0	0	0	0.000000	0.000000	1	-360	360	 ; 
9020	2350	0.000170	0.002500	0	0	0	0	0.000000	0.000000	1	-360	360	 ; 
6435	2201	0.000360	0.004360	0	0	0	0	0.000000	0.000000	1	-360	360	 ; 
6435	3448	0.000170	0.002550	0	0	0	0	0.000000	0.000000	1	-360	360	 ; 
3223	4642	0.000960	0.009950	0	0	0	0	0.000000	0.000000	1	-360	360	 ; 
3223	9919	0.001520	0.019490	0	0	0	0	0.000000	0.000000	1	-360	360	 ; 
7755	4642	0.000940	0.010140	0	0	0	0	0.000000	0.000000	1	-360	360	 ; 
7755	9919	0.001490	0.019860	0	0	0	0	0.000000	0.000000	1	-360	360	 ; 
4129	4642	0.001070	0.012430	0	0	0	0	0.000000	0.000000	1	-360	360	 ; 
4129	3715	0.001020	0.010340	0	0	0	0	0.000000	0.000000	1	-360	360	 ; 
5471	7106	0.004700	0.020610	0	0	0	0	0.000000	0.000000	1	-360	360	 ; 
5471	5434	0.007390	0.040531	0	0	0	0	0.000000	0.000000	1	-360	360	 ; 
8834	12770	0.000490	0.006110	0	0	0	0	0.000000	0.000000	1	-360	360	 ; 
8834	10744	0.000350	0.004310	0	0	0	0	0.000000	0.000000	1	-360	360	 ; 
7831	1467	0.002610	0.013440	0	0	0	0	0.000000	0.000000	1	-360	360	 ; 
7831	5173	0.003521	0.019591	0	0	0	0	0.000000	0.000000	1	-360	360	 ; 
10033	5005	0.002500	0.014190	0	0	0	0	0.000000	0.000000	1	-360	360	 ; 
10033	7387	0.002870	0.023700	0	0	0	0	0.000000	0.000000	1	-360	360	 ; 
9789	9848	0.000880	0.009560	0	0	0	0	0.000000	0.000000	1	-360	360	 ; 
9789	430	0.000950	0.008770	0	0	0	0	0.000000	0.000000	1	-360	360	 ; 
2916	1094	0.003320	0.020651	0	0	0	0	0.000000	0.000000	1	-360	360	 ; 
2916	2869	0.003969	0.018781	0	0	0	0	0.000000	0.000000	1	-360	360	 ; 
4142	3925	0.002849	0.014909	0	0	0	0	0.000000	0.000000	1	-360	360	 ; 
4142	2245	0.004390	0.024510	0	0	0	0	0.000000	0.000000	1	-360	360	 ; 
123	12854	0.000200	0.001800	0	0	0	0	0.000000	0.000000	1	-360	360	 ; 
123	12369	0.000250	0.002610	0	0	0	0	0.000000	0.000000	1	-360	360	 ; 
10806	12854	0.000200	0.001760	0	0	0	0	0.000000	0.000000	1	-360	360	 ; 
10806	1112	0.000250	0.002550	0	0	0	0	0.000000	0.000000	1	-360	360	 ; 
12593	9027	0.012488	0.047413	0	0	0	0	0.000000	0.000000	1	-360	360	 ; 
12593	455	0.010479	0.027711	0	0	0	0	0.000000	0.000000	1	-360	360	 ; 
3745	10922	0.000440	0.004280	0	0	0	0	0.000000	0.000000	1	-360	360	 ; 
3745	1898	0.000360	0.004750	0	0	0	0	0.000000	0.000000	1	-360	360	 ; 
6938	7640	0.000580	0.005340	0	0	0	0	0.000000	0.000000	1	-360	360	 ; 
6938	4543	0.000540	0.005890	0	0	0	0	0.000000	0.000000	1	-360	360	 ; 
4229	2024	0.002060	0.020570	0	0	0	0	0.000000	0.000000	1	-360	360	 ; 
4229	9388	0.000770	0.008720	0	0	0	0	0.000000	0.000000	1	-360	360	 ; 
5543	13575	0.001610	0.019630	0	0	0	0	0.000000	0.000000	1	-360	360	 ; 
5543	9388	0.000750	0.008880	0	0	0	0	0.000000	0.000000	1	-360	360	 ; 
2764	10638	0.000160	0.001520	0	0	0	0	0.000000	0.000000	1	-360	360	 ; 
2764	10338	0.000190	0.001630	0	0	0	0	0.000000	0.000000	1	-360	360	 ; 
7963	10638	0.000150	0.001600	0	0	0	0	0.000000	0.000000	1	-360	360	 ; 
7963	10338	0.000150	0.001830	0	0	0	0	0.000000	0.000000	1	-360	360	 ; 
5383	4802	0.001210	0.014260	0	0	0	0	0.000000	0.000000	1	-360	360	 ; 
5383	8035	0.001160	0.014560	0	0	0	0	0.000000	0.000000	1	-360	360	 ; 
663	204	0.000680	0.007270	0	0	0	0	0.000000	0.000000	1	-360	360	 ; 
663	6973	0.000700	0.007340	0	0	0	0	0.000000	0.000000	1	-360	360	 ; 
11598	204	0.000760	0.007120	0	0	0	0	0.000000	0.000000	1	-360	360	 ; 
11598	6973	0.000800	0.007190	0	0	0	0	0.000000	0.000000	1	-360	360	 ; 
2983	2257	0.000200	0.002200	0	0	0	0	0.000000	0.000000	1	-360	360	 ; 
2983	10869	0.000200	0.002200	0	0	0	0	0.000000	0.000000	1	-360	360	 ; 
411	4997	0.000205	0.002150	0	0	0	0	0.000000	0.000000	1	-360	360	 ; 
411	10869	0.000205	0.002150	0	0	0	0	0.000000	0.000000	1	-360	360	 ; 
8649	12423	0.000530	0.005890	0	0	0	0	0.000000	0.000000	1	-360	360	 ; 
8649	1165	0.000460	0.006750	0	0	0	0	0.000000	0.000000	1	-360	360	 ; 
13485	12423	0.000540	0.005770	0	0	0	0	0.000000	0.000000	1	-360	360	 ; 
13485	1165	0.000450	0.006250	0	0	0	0	0.000000	0.000000	1	-360	360	 ; 
2363	2209	0.002750	0.027520	0	0	0	0	0.000000	0.000000	1	-360	360	 ; 
2363	11249	0.001840	0.015150	0	0	0	0	0.000000	0.000000	1	-360	360	 ; 
3314	10019	0.004380	0.024320	0	0	0	0	0.000000	0.000000	1	-360	360	 ; 
3314	879	0.004300	0.019490	0	0	0	0	0.000000	0.000000	1	-360	360	 ; 
12347	10227	0.000330	0.002690	0	0	0	0	0.000000	0.000000	1	-360	360	 ; 
12347	2517	0.002430	0.019040	0	0	0	0	0.000000	0.000000	1	-360	360	 ; 
1326	10227	0.000340	0.002630	0	0	0	0	0.000000	0.000000	1	-360	360	 ; 
1326	2517	0.002480	0.018640	0	0	0	0	0.000000	0.000000	1	-360	360	 ; 
9864	13169	0.001220	0.012490	0	0	0	0	0.000000	0.000000	1	-360	360	 ; 
9864	5959	0.001060	0.010310	0	0	0	0	0.000000	0.000000	1	-360	360	 ; 
4830	13169	0.001190	0.012730	0	0	0	0	0.000000	0.000000	1	-360	360	 ; 
4830	5959	0.001080	0.010090	0	0	0	0	0.000000	0.000000	1	-360	360	 ; 
12318	6464	0.001039	0.013711	0	0	0	0	0.000000	0.000000	1	-360	360	 ; 
12318	7516	0.001140	0.011409	0	0	0	0	0.000000	0.000000	1	-360	360	 ; 
11537	8566	0.001021	0.013969	0	0	0	0	0.000000	0.000000	1	-360	360	 ; 
11537	7516	0.001169	0.011159	0	0	0	0	0.000000	0.000000	1	-360	360	 ; 
13343	12066	0.000000	0.000271	0	0	0	0	0.000000	0.000000	1	-360	360	 ; 
3313	12066	0.000000	0.000271	0	0	0	0	0.000000	0.000000	1	-360	360	 ; 
1196	218	0.009372	0.035702	0	0	0	0	0.000000	0.000000	1	-360	360	 ; 
1196	3002	0.029157	0.103686	0	0	0	0	0.000000	0.000000	1	-360	360	 ; 
780	8041	0.000650	0.006730	0	0	0	0	0.000000	0.000000	1	-360	360	 ; 
780	6114	0.000660	0.006580	0	0	0	0	0.000000	0.000000	1	-360	360	 ; 
5179	3568	0.000969	0.006021	0	0	0	0	0.000000	0.000000	1	-360	360	 ; 
5179	3085	0.000990	0.005901	0	0	0	0	0.000000	0.000000	1	-360	360	 ; 
1666	7897	0.000880	0.006599	0	0	0	0	0.000000	0.000000	1	-360	360	 ; 
1666	6301	0.000860	0.006729	0	0	0	0	0.000000	0.000000	1	-360	360	 ; 
12861	4782	0.000090	0.000770	0	0	0	0	0.000000	0.000000	1	-360	360	 ; 
12861	6207	0.000090	0.000780	0	0	0	0	0.000000	0.000000	1	-360	360	 ; 
7212	4782	0.000080	0.000820	0	0	0	0	0.000000	0.000000	1	-360	360	 ; 
7212	11151	0.000080	0.000760	0	0	0	0	0.000000	0.000000	1	-360	360	 ; 
9869	8041	0.000090	0.000740	0	0	0	0	0.000000	0.000000	1	-360	360	 ; 
9869	6207	0.000090	0.000730	0	0	0	0	0.000000	0.000000	1	-360	360	 ; 
6015	3568	0.000620	0.003781	0	0	0	0	0.000000	0.000000	1	-360	360	 ; 
6015	1131	0.000599	0.003500	0	0	0	0	0.000000	0.000000	1	-360	360	 ; 
10035	7897	0.000640	0.002740	0	0	0	0	0.000000	0.000000	1	-360	360	 ; 
10035	1910	0.000651	0.002680	0	0	0	0	0.000000	0.000000	1	-360	360	 ; 
9951	1939	0.000550	0.006850	0	0	0	0	0.000000	0.000000	1	-360	360	 ; 
9951	557	0.000610	0.006390	0	0	0	0	0.000000	0.000000	1	-360	360	 ; 
8771	8041	0.000420	0.005230	0	0	0	0	0.000000	0.000000	1	-360	360	 ; 
8771	12272	0.000450	0.006050	0	0	0	0	0.000000	0.000000	1	-360	360	 ; 
8284	4782	0.000300	0.002280	0	0	0	0	0.000000	0.000000	1	-360	360	 ; 
8284	13171	0.000260	0.002640	0	0	0	0	0.000000	0.000000	1	-360	360	 ; 
4891	7738	0.005360	0.035680	0	0	0	0	0.000000	0.000000	1	-360	360	 ; 
...
 
%%-----  OPF Data  -----%% 
%% generator cost data
%	1	startup	shutdown	n	x1	y1	...	xn	yn
%	2	startup	shutdown	n	c(n-1)	...	c0
mpc.gencost = [ 
2	0	0	3	0	1	0	; 
2	0	0	3	0	1	0	; 
2	0	0	3	0	1	0	; 
2	0	0	3	0	1	0	; 
2	0	0	3	0	1	0	; 
2	0	0	3	0	1	0	; 
2	0	0	3	0	1	0	; 
2	0	0	3	0	1	0	; 
2	0	0	3	0	1	0	; 
2	0	0	3	0	1	0	; 
2	0	0	3	0	1	0	; 
2	0	0	3	0	1	0	; 
2	0	0	3	0	1	0	; 
2	0	0	3	0	1	0	; 
2	0	0	3	0	1	0	; 
2	0	0	3	0	1	0	; 
2	0	0	3	0	1	0	; 
2	0	0	3	0	1	0	; 
2	0	0	3	0	1	0	; 
2	0	0	3	0	1	0	; 
2	0	0	3	0	1	0	; 
2	0	0	3	0	1	0	; 
2	0	0	3	0	1	0	; 
2	0	0	3	0	1	0	; 
2	0	0	3	0	1	0	; 
2	0	0	3	0	1	0	; 
2	0	0	3	0	1	0	; 
2	0	0	3	0	1	0	; 
2	0	0	3	0	1	0	; 
2	0	0	3	0	1	0	; 
2	0	0	3	0	1	0	; 
2	0	0	3	0	1	0	; 
2	0	0	3	0	1	0	; 
2	0	0	3	0	1	0	; 
2	0	0	3	0	1	0	; 
2	0	0	3	0	1	0	; 
2	0	0	3	0	1	0	; 
2	0	0	3	0	1	0	; 
2	0	0	3	0	1	0	; 
2	0	0	3	0	1	0	; 
2	0	0	3	0	1	0	; 
2	0	0	3	0	1	0	; 
2	0	0	3	0	1	0	; 
2	0	0	3	0	1	0	; 
2	0	0	3	0	1	0	; 
2	0	0	3	0	1	0	; 
2	0	0	3	0	1	0	; 
2	0	0	3	0	1	0	; 
2	0	0	3	0	1	0	; 
2	0	0	3	0	1	0	; 
2	0	0	3	0	1	0	; 
2	0	0	3	0	1	0	; 
2	0	0	3	0	1	0	; 
2	0	0	3	0	1	0	; 
2	0	0	3	0	1	0	; 
2	0	0	3	0	1	0	; 
2	0	0	3	0	1	0	; 
2	0	0	3	0	1	0	; 
2	0	0	3	0	1	0	; 
2	0	0	3	0	1	0	; 
2	0	0	3	0	1	0	; 
2	0	0	3	0	1	0	; 
2	0	0	3	0	1	0	; 
2	0	0	3	0	1	0	; 
2	0	0	3	0	1	0	; 
2	0	0	3	0	1	0	; 
2	0	0	3	0	1	0	; 
2	0	0	3	0	1	0	; 
2	0	0	3	0	1	0	; 
2	0	0	3	0	1	0	; 
2	0	0	3	0	1	0	; 
2	0	0	3	0	1	0	; 
2	0	0	3	0	1	0	; 
2	0	0	3	0	1	0	; 
2	0	0	3	0	1	0	; 
2	0	0	3	0	1	0	; 
2	0	0	3	0	1	0	; 
2	0	0	3	0	1	0	; 
2	0	0	3	0	1	0	; 
2	0	0	3	0	1	0	; 
2	0	0	3	0	1	0	; 
2	0	0	3	0	1	0	; 
2	0	0	3	0	1	0	; 
2	0	0	3	0	1	0	; 
2	0	0	3	0	1	0	; 
2	0	0	3	0	1	0	; 
2	0	0	3	0	1	0	; 
2	0	0	3	0	1	0	; 
2	0	0	3	0	1	0	; 
2	0	0	3	0	1	0	; 
2	0	0	3	0	1	0	; 
2	0	0	3	0	1	0	; 
2	0	0	3	0	1	0	; 
2	0	0	3	0	1	0	; 
2	0	0	3	0	1	0	; 
2	0	0	3	0	1	0	; 
2	0	0	3	0	1	0	; 
2	0	0	3	0	1	0	; 
2	0	0	3	0	1	0	; 
2	0	0	3	0	1	0	; 
2	0	0	3	0	1	0	; 
2	0	0	3	0	1	0	; 
2	0	0	3	0	1	0	; 
2	0	0	3	0	1	0	; 
2	0	0	3	0	1	0	; 
2	0	0	3	0	1	0	; 
2	0	0	3	0	1	0	; 
2	0	0	3	0	1	0	; 
2	0	0	3	0	1	0	; 
2	0	0	3	0	1	0	; 
2	0	0	3	0	1	0	; 
2	0	0	3	0	1	0	; 
2	0	0	3	0	1	0	; 
2	0	0	3	0	1	0	; 
2	0	0	3	0	1	0	; 
2	0	0	3	0	1	0	; 
2	0	0	3	0	1	0	; 
2	0	0	3	0	1	0	; 
2	0	0	3	0	1	0	; 
2	0	0	3	0	1	0	; 
2	0	0	3	0	1	0	; 
2	0	0	3	0	1	0	; 
2	0	0	3	0	1	0	; 
2	0	0	3	0	1	0	; 
2	0	0	3	0	1	0	; 
2	0	0	3	0	1	0	; 
2	0	0	3	0	1	0	; 
2	0	0	3	0	1	0	; 
2	0	0	3	0	1	0	; 
2	0	0	3	0	1	0	; 
2	0	0	3	0	1	0	; 
2	0	0	3	0	1	0	; 
2	0	0	3	0	1	0	; 
2	0	0	3	0	1	0	; 
2	0	0	3	0	1	0	; 
2	0	0	3	0	1	0	; 
2	0	0	3	0	1	0	; 
2	0	0	3	0	1	0	; 
2	0	0	3	0	1	0	; 
2	0	0	3	0	1	0	; 
2	0	0	3	0	1	0	; 
2	0	0	3	0	1	0	; 
2	0	0	3	0	1	0	; 
2	0	0	3	0	1	0	; 
2	0	0	3	0	1	0	; 
2	0	0	3	0	1	0	; 
2	0	0	3	0	1	0	; 
2	0	0	3	0	1	0	; 
2	0	0	3	0	1	0	; 
2	0	0	3	0	1	0	; 
2	0	0	3	0	1	0	; 
2	0	0	3	0	1	0	; 
2	0	0	3	0	1	0	; 
2	0	0	3	0	1	0	; 
2	0	0	3	0	1	0	; 
2	0	0	3	0	1	0	; 
2	0	0	3	0	1	0	; 
2	0	0	3	0	1	0	; 
2	0	0	3	0	1	0	; 
2	0	0	3	0	1	0	; 
2	0	0	3	0	1	0	; 
2	0	0	3	0	1	0	; 
2	0	0	3	0	1	0	; 
2	0	0	3	0	1	0	; 
2	0	0	3	0	1	0	; 
2	0	0	3	0	1	0	; 
2	0	0	3	0	1	0	; 
2	0	0	3	0	1	0	; 
2	0	0	3	0	1	0	; 
2	0	0	3	0	1	0	; 
2	0	0	3	0	1	0	; 
2	0	0	3	0	1	0	; 
2	0	0	3	0	1	0	; 
2	0	0	3	0	1	0	; 
2	0	0	3	0	1	0	; 
2	0	0	3	0	1	0	; 
2	0	0	3	0	1	0	; 
2	0	0	3	0	1	0	; 
2	0	0	3	0	1	0	; 
2	0	0	3	0	1	0	; 
2	0	0	3	0	1	0	; 
2	0	0	3	0	1	0	; 
2	0	0	3	0	1	0	; 
2	0	0	3	0	1	0	; 
2	0	0	3	0	1	0	; 
2	0	0	3	0	1	0	; 
2	0	0	3	0	1	0	; 
2	0	0	3	0	1	0	; 
2	0	0	3	0	1	0	; 
2	0	0	3	0	1	0	; 
2	0	0	3	0	1	0	; 
2	0	0	3	0	1	0	; 
2	0	0	3	0	1	0	; 
2	0	0	3	0	1	0	; 
2	0	0	3	0	1	0	; 
2	0	0	3	0	1	0	; 
2	0	0	3	0	1	0	; 
2	0	0	3	0	1	0	; 
2	0	0	3	0	1	0	; 
2	0	0	3	0	1	0	; 
...
 